https://github.com/DualSPHysics/DualSPHysics/wiki